!-Generator eplusr
!-Option SortedOrder

!-NOTE: All comments with '!-' are ignored by the IDFEditor and are generated automatically.
!-      Use '!' comments if they need to be retained when using the IDFEditor.


!-   ===========  ALL OBJECTS IN CLASS: VERSION ===========

Version,
    9.3;                     !- Version Identifier


!-   ===========  ALL OBJECTS IN CLASS: SIMULATIONCONTROL ===========

SimulationControl,
    Yes,                     !- Do Zone Sizing Calculation
    No,                      !- Do System Sizing Calculation
    Yes,                     !- Do Plant Sizing Calculation
    No,                      !- Run Simulation for Sizing Periods
    Yes;                     !- Run Simulation for Weather File Run Periods


!-   ===========  ALL OBJECTS IN CLASS: BUILDING ===========

Building,
    Austin Mueller Municipal Ap  U TX 2340 sqft,  !- Name
    0,                       !- North Axis {deg}
    Suburbs,                 !- Terrain
    0.05,                    !- Loads Convergence Tolerance Value {W}
    0.05,                    !- Temperature Convergence Tolerance Value {deltaC}
    FullExterior,            !- Solar Distribution
    50,                      !- Maximum Number of Warmup Days
    ;                        !- Minimum Number of Warmup Days


!-   ===========  ALL OBJECTS IN CLASS: SHADOWCALCULATION ===========

ShadowCalculation,
    PolygonClipping,         !- Shading Calculation Method
    Periodic,                !- Shading Calculation Update Frequency Method
    20,                      !- Shading Calculation Update Frequency
    200;                     !- Maximum Figures in Shadow Overlap Calculations


!-   ===========  ALL OBJECTS IN CLASS: SURFACECONVECTIONALGORITHM:INSIDE ===========

SurfaceConvectionAlgorithm:Inside,
    TARP;                    !- Algorithm


!-   ===========  ALL OBJECTS IN CLASS: SURFACECONVECTIONALGORITHM:OUTSIDE ===========

SurfaceConvectionAlgorithm:Outside,
    DOE-2;                   !- Algorithm


!-   ===========  ALL OBJECTS IN CLASS: HEATBALANCEALGORITHM ===========

HeatBalanceAlgorithm,
    ConductionTransferFunction,  !- Algorithm
    200;                     !- Surface Temperature Upper Limit {C}


!-   ===========  ALL OBJECTS IN CLASS: ZONECAPACITANCEMULTIPLIER:RESEARCHSPECIAL ===========

ZoneCapacitanceMultiplier:ResearchSpecial,
    Multiplier,              !- Name
    ,                        !- Zone or ZoneList Name
    1,                       !- Temperature Capacity Multiplier
    15,                      !- Humidity Capacity Multiplier
    1,                       !- Carbon Dioxide Capacity Multiplier
    ;                        !- Generic Contaminant Capacity Multiplier


!-   ===========  ALL OBJECTS IN CLASS: TIMESTEP ===========

Timestep,
    6;                       !- Number of Timesteps per Hour


!-   ===========  ALL OBJECTS IN CLASS: CONVERGENCELIMITS ===========

ConvergenceLimits,
    2,                       !- Minimum System Timestep {minutes}
    20;                      !- Maximum HVAC Iterations


!-   ===========  ALL OBJECTS IN CLASS: SITE:LOCATION ===========

Site:Location,
    Austin Mueller Municipal Ap  U TX,  !- Name
    30.29,                   !- Latitude {deg}
    -97.74,                  !- Longitude {deg}
    -7,                      !- Time Zone {hr}
    213.00000072;            !- Elevation {m}


!-   ===========  ALL OBJECTS IN CLASS: SIZINGPERIOD:WEATHERFILEDAYS ===========

SizingPeriod:WeatherFileDays,
    Plant DD,                !- Name
    1,                       !- Begin Month
    1,                       !- Begin Day of Month
    1,                       !- End Month
    1,                       !- End Day of Month
    Tuesday,                 !- Day of Week for Start Day
    Yes,                     !- Use Weather File Daylight Saving Period
    No;                      !- Use Weather File Rain and Snow Indicators


!-   ===========  ALL OBJECTS IN CLASS: RUNPERIOD ===========

RunPeriod,
    Austin Mueller Municipal Ap  U TX 2340 sqft,  !- Name
    1,                       !- Begin Month
    1,                       !- Begin Day of Month
    ,                        !- Begin Year
    12,                      !- End Month
    31,                      !- End Day of Month
    ,                        !- End Year
    Tuesday,                 !- Day of Week for Start Day
    No,                      !- Use Weather File Holidays and Special Days
    Yes,                     !- Use Weather File Daylight Saving Period
    No,                      !- Apply Weekend Holiday Rule
    Yes,                     !- Use Weather File Rain Indicators
    Yes,                     !- Use Weather File Snow Indicators
    ;                        !- Treat Weather as Actual


!-   ===========  ALL OBJECTS IN CLASS: RUNPERIODCONTROL:SPECIALDAYS ===========

RunPeriodControl:SpecialDays,
    MayVacationWeekdays,     !- Name
    5/27,                    !- Start Date
    2,                       !- Duration {days}
    CustomDay1;              !- Special Day Type

RunPeriodControl:SpecialDays,
    AugVacationWeekdays,     !- Name
    8/12,                    !- Start Date
    5,                       !- Duration {days}
    CustomDay1;              !- Special Day Type

RunPeriodControl:SpecialDays,
    DecVacationWeekdays,     !- Name
    12/23,                   !- Start Date
    3,                       !- Duration {days}
    CustomDay1;              !- Special Day Type

RunPeriodControl:SpecialDays,
    MayVacationWeekends,     !- Name
    5/26,                    !- Start Date
    1,                       !- Duration {days}
    CustomDay2;              !- Special Day Type

RunPeriodControl:SpecialDays,
    AugVacationWeekends,     !- Name
    8/17,                    !- Start Date
    2,                       !- Duration {days}
    CustomDay2;              !- Special Day Type

RunPeriodControl:SpecialDays,
    DecVacationWeekends,     !- Name
    12/22,                   !- Start Date
    1,                       !- Duration {days}
    CustomDay2;              !- Special Day Type


!-   ===========  ALL OBJECTS IN CLASS: RUNPERIODCONTROL:DAYLIGHTSAVINGTIME ===========

RunPeriodControl:DaylightSavingTime,
    April 7,                 !- Start Date
    October 26;              !- End Date


!-   ===========  ALL OBJECTS IN CLASS: SITE:GROUNDTEMPERATURE:BUILDINGSURFACE ===========

Site:GroundTemperature:BuildingSurface,
    14.9365733506448,        !- January Ground Temperature {C}
    13.1813013408975,        !- February Ground Temperature {C}
    13.040732863577,         !- March Ground Temperature {C}
    13.8736991202836,        !- April Ground Temperature {C}
    17.2175944756744,        !- May Ground Temperature {C}
    20.5459125479445,        !- June Ground Temperature {C}
    23.4313864371434,        !- July Ground Temperature {C}
    25.2592631791669,        !- August Ground Temperature {C}
    25.4145513482151,        !- September Ground Temperature {C}
    23.927880842729,         !- October Ground Temperature {C}
    21.1159882318089,        !- November Ground Temperature {C}
    17.8897694015182;        !- December Ground Temperature {C}


!-   ===========  ALL OBJECTS IN CLASS: SITE:GROUNDTEMPERATURE:DEEP ===========

Site:GroundTemperature:Deep,
    19.0611111111111,        !- January Deep Ground Temperature {C}
    19.0611111111111,        !- February Deep Ground Temperature {C}
    19.0611111111111,        !- March Deep Ground Temperature {C}
    19.0611111111111,        !- April Deep Ground Temperature {C}
    19.0611111111111,        !- May Deep Ground Temperature {C}
    19.0611111111111,        !- June Deep Ground Temperature {C}
    19.0611111111111,        !- July Deep Ground Temperature {C}
    19.0611111111111,        !- August Deep Ground Temperature {C}
    19.0611111111111,        !- September Deep Ground Temperature {C}
    19.0611111111111,        !- October Deep Ground Temperature {C}
    19.0611111111111,        !- November Deep Ground Temperature {C}
    19.0611111111111;        !- December Deep Ground Temperature {C}


!-   ===========  ALL OBJECTS IN CLASS: SITE:WATERMAINSTEMPERATURE ===========

Site:WaterMainsTemperature,
    Correlation,             !- Calculation Method
    ,                        !- Temperature Schedule Name
    19.0611111111111,        !- Annual Average Outdoor Air Temperature {C}
    22.95;                   !- Maximum Difference In Monthly Average Outdoor Air Temperatures {deltaC}


!-   ===========  ALL OBJECTS IN CLASS: SCHEDULETYPELIMITS ===========

ScheduleTypeLimits,
    Multiplier,              !- Name
    ,                        !- Lower Limit Value
    ,                        !- Upper Limit Value
    Continuous;              !- Numeric Type

ScheduleTypeLimits,
    Fraction,                !- Name
    0,                       !- Lower Limit Value
    1,                       !- Upper Limit Value
    Continuous;              !- Numeric Type

ScheduleTypeLimits,
    On/Off,                  !- Name
    0,                       !- Lower Limit Value
    1,                       !- Upper Limit Value
    Discrete;                !- Numeric Type

ScheduleTypeLimits,
    Temperature,             !- Name
    -60,                     !- Lower Limit Value
    200,                     !- Upper Limit Value
    Continuous;              !- Numeric Type

ScheduleTypeLimits,
    Month,                   !- Name
    1,                       !- Lower Limit Value
    12,                      !- Upper Limit Value
    Discrete;                !- Numeric Type

ScheduleTypeLimits,
    RelativeHumidity,        !- Name
    0,                       !- Lower Limit Value
    100,                     !- Upper Limit Value
    Continuous;              !- Numeric Type


!-   ===========  ALL OBJECTS IN CLASS: SCHEDULE:DAY:HOURLY ===========

Schedule:Day:Hourly,
    BathExhaustDay_1,        !- Name
    FRACTION,                !- Schedule Type Limits Name
    0,                       !- Hour 1
    0,                       !- Hour 2
    0,                       !- Hour 3
    0,                       !- Hour 4
    0,                       !- Hour 5
    0,                       !- Hour 6
    1,                       !- Hour 7
    0,                       !- Hour 8
    0,                       !- Hour 9
    0,                       !- Hour 10
    0,                       !- Hour 11
    0,                       !- Hour 12
    0,                       !- Hour 13
    0,                       !- Hour 14
    0,                       !- Hour 15
    0,                       !- Hour 16
    0,                       !- Hour 17
    0,                       !- Hour 18
    0,                       !- Hour 19
    0,                       !- Hour 20
    0,                       !- Hour 21
    0,                       !- Hour 22
    0,                       !- Hour 23
    0;                       !- Hour 24

Schedule:Day:Hourly,
    CeilingFanWeekday_1,     !- Name
    ON/OFF,                  !- Schedule Type Limits Name
    1,                       !- Hour 1
    1,                       !- Hour 2
    1,                       !- Hour 3
    1,                       !- Hour 4
    1,                       !- Hour 5
    1,                       !- Hour 6
    1,                       !- Hour 7
    1,                       !- Hour 8
    1,                       !- Hour 9
    1,                       !- Hour 10
    1,                       !- Hour 11
    1,                       !- Hour 12
    1,                       !- Hour 13
    1,                       !- Hour 14
    1,                       !- Hour 15
    1,                       !- Hour 16
    1,                       !- Hour 17
    1,                       !- Hour 18
    1,                       !- Hour 19
    1,                       !- Hour 20
    1,                       !- Hour 21
    1,                       !- Hour 22
    1,                       !- Hour 23
    1;                       !- Hour 24

Schedule:Day:Hourly,
    CeilingFanWeekend_1,     !- Name
    ON/OFF,                  !- Schedule Type Limits Name
    1,                       !- Hour 1
    1,                       !- Hour 2
    1,                       !- Hour 3
    1,                       !- Hour 4
    1,                       !- Hour 5
    1,                       !- Hour 6
    1,                       !- Hour 7
    1,                       !- Hour 8
    1,                       !- Hour 9
    1,                       !- Hour 10
    1,                       !- Hour 11
    1,                       !- Hour 12
    1,                       !- Hour 13
    1,                       !- Hour 14
    1,                       !- Hour 15
    1,                       !- Hour 16
    1,                       !- Hour 17
    1,                       !- Hour 18
    1,                       !- Hour 19
    1,                       !- Hour 20
    1,                       !- Hour 21
    1,                       !- Hour 22
    1,                       !- Hour 23
    1;                       !- Hour 24

Schedule:Day:Hourly,
    ClothesDryerDayMult0_1,  !- Name
    FRACTION,                !- Schedule Type Limits Name
    0.100912506709608,       !- Hour 1
    0.0605475040257649,      !- Hour 2
    0.0403650026838433,      !- Hour 3
    0.0201825013419216,      !- Hour 4
    0.0403650026838433,      !- Hour 5
    0.0605475040257649,      !- Hour 6
    0.161460010735373,       !- Hour 7
    0.322920021470746,       !- Hour 8
    0.484380032206119,       !- Hour 9
    0.686205045625336,       !- Hour 10
    0.787117552334944,       !- Hour 11
    0.817391304347826,       !- Hour 12
    0.7467525496511,         !- Hour 13
    0.676113794954375,       !- Hour 14
    0.575201288244767,       !- Hour 15
    0.61556629092861,        !- Hour 16
    0.555018786902845,       !- Hour 17
    0.544927536231884,       !- Hour 18
    0.514653784219002,       !- Hour 19
    0.514653784219002,       !- Hour 20
    0.524745034889962,       !- Hour 21
    0.544927536231884,       !- Hour 22
    0.444015029522276,       !- Hour 23
    0.24219001610306;        !- Hour 24

Schedule:Day:Hourly,
    ClothesDryerDayMult1_1,  !- Name
    FRACTION,                !- Schedule Type Limits Name
    0,                       !- Hour 1
    0,                       !- Hour 2
    0,                       !- Hour 3
    0,                       !- Hour 4
    0,                       !- Hour 5
    0,                       !- Hour 6
    0,                       !- Hour 7
    0,                       !- Hour 8
    0,                       !- Hour 9
    0,                       !- Hour 10
    0,                       !- Hour 11
    0,                       !- Hour 12
    0,                       !- Hour 13
    0,                       !- Hour 14
    0,                       !- Hour 15
    0,                       !- Hour 16
    0,                       !- Hour 17
    0,                       !- Hour 18
    0,                       !- Hour 19
    0,                       !- Hour 20
    0,                       !- Hour 21
    0,                       !- Hour 22
    0,                       !- Hour 23
    0;                       !- Hour 24

Schedule:Day:Hourly,
    ClothesDryerDayMult2_1,  !- Name
    FRACTION,                !- Schedule Type Limits Name
    0.123456790123457,       !- Hour 1
    0.0740740740740741,      !- Hour 2
    0.0493827160493827,      !- Hour 3
    0.0246913580246914,      !- Hour 4
    0.0493827160493827,      !- Hour 5
    0.0740740740740741,      !- Hour 6
    0.197530864197531,       !- Hour 7
    0.395061728395062,       !- Hour 8
    0.592592592592593,       !- Hour 9
    0.839506172839506,       !- Hour 10
    0.962962962962963,       !- Hour 11
    1,                       !- Hour 12
    0.91358024691358,        !- Hour 13
    0.827160493827161,       !- Hour 14
    0.703703703703704,       !- Hour 15
    0.753086419753087,       !- Hour 16
    0.679012345679012,       !- Hour 17
    0.666666666666667,       !- Hour 18
    0.62962962962963,        !- Hour 19
    0.62962962962963,        !- Hour 20
    0.641975308641975,       !- Hour 21
    0.666666666666667,       !- Hour 22
    0.54320987654321,        !- Hour 23
    0.296296296296296;       !- Hour 24

Schedule:Day:Hourly,
    ClothesDryerExhaustDay_1,!- Name
    FRACTION,                !- Schedule Type Limits Name
    0,                       !- Hour 1
    0,                       !- Hour 2
    0,                       !- Hour 3
    0,                       !- Hour 4
    0,                       !- Hour 5
    0,                       !- Hour 6
    0,                       !- Hour 7
    0,                       !- Hour 8
    0,                       !- Hour 9
    0,                       !- Hour 10
    1,                       !- Hour 11
    0,                       !- Hour 12
    0,                       !- Hour 13
    0,                       !- Hour 14
    0,                       !- Hour 15
    0,                       !- Hour 16
    0,                       !- Hour 17
    0,                       !- Hour 18
    0,                       !- Hour 19
    0,                       !- Hour 20
    0,                       !- Hour 21
    0,                       !- Hour 22
    0,                       !- Hour 23
    0;                       !- Hour 24

Schedule:Day:Hourly,
    CookingRangeWkDay01_1,   !- Name
    FRACTION,                !- Schedule Type Limits Name
    0.0466666666666667,      !- Hour 1
    0.0466666666666667,      !- Hour 2
    0.0266666666666667,      !- Hour 3
    0.0266666666666667,      !- Hour 4
    0.0466666666666667,      !- Hour 5
    0.0733333333333333,      !- Hour 6
    0.166666666666667,       !- Hour 7
    0.28,                    !- Hour 8
    0.306666666666667,       !- Hour 9
    0.32,                    !- Hour 10
    0.28,                    !- Hour 11
    0.333333333333333,       !- Hour 12
    0.38,                    !- Hour 13
    0.306666666666667,       !- Hour 14
    0.38,                    !- Hour 15
    0.293333333333333,       !- Hour 16
    0.613333333333333,       !- Hour 17
    1,                       !- Hour 18
    0.78,                    !- Hour 19
    0.4,                     !- Hour 20
    0.233333333333333,       !- Hour 21
    0.166666666666667,       !- Hour 22
    0.106666666666667,       !- Hour 23
    0.0733333333333333;      !- Hour 24

Schedule:Day:Hourly,
    CookingRangeWkDay02_1,   !- Name
    FRACTION,                !- Schedule Type Limits Name
    0.0466666666666667,      !- Hour 1
    0.0466666666666667,      !- Hour 2
    0.0266666666666667,      !- Hour 3
    0.0266666666666667,      !- Hour 4
    0.0466666666666667,      !- Hour 5
    0.0733333333333333,      !- Hour 6
    0.166666666666667,       !- Hour 7
    0.28,                    !- Hour 8
    0.306666666666667,       !- Hour 9
    0.32,                    !- Hour 10
    0.28,                    !- Hour 11
    0.333333333333333,       !- Hour 12
    0.38,                    !- Hour 13
    0.306666666666667,       !- Hour 14
    0.38,                    !- Hour 15
    0.293333333333333,       !- Hour 16
    0.613333333333333,       !- Hour 17
    1,                       !- Hour 18
    0.78,                    !- Hour 19
    0.4,                     !- Hour 20
    0.233333333333333,       !- Hour 21
    0.166666666666667,       !- Hour 22
    0.106666666666667,       !- Hour 23
    0.0733333333333333;      !- Hour 24

Schedule:Day:Hourly,
    CookingRangeWkDay03_1,   !- Name
    FRACTION,                !- Schedule Type Limits Name
    0.0421573989668794,      !- Hour 1
    0.0421573989668794,      !- Hour 2
    0.0240899422667882,      !- Hour 3
    0.0240899422667882,      !- Hour 4
    0.0421573989668794,      !- Hour 5
    0.0662473412336676,      !- Hour 6
    0.150562139167426,       !- Hour 7
    0.252944393801276,       !- Hour 8
    0.277034336068064,       !- Hour 9
    0.289079307201459,       !- Hour 10
    0.252944393801276,       !- Hour 11
    0.301124278334853,       !- Hour 12
    0.343281677301732,       !- Hour 13
    0.277034336068064,       !- Hour 14
    0.343281677301732,       !- Hour 15
    0.26498936493467,        !- Hour 16
    0.554068672136129,       !- Hour 17
    0.903372835004558,       !- Hour 18
    0.704630811303555,       !- Hour 19
    0.361349134001823,       !- Hour 20
    0.210786994834397,       !- Hour 21
    0.150562139167426,       !- Hour 22
    0.0963597690671529,      !- Hour 23
    0.0662473412336676;      !- Hour 24

Schedule:Day:Hourly,
    CookingRangeWkDay04_1,   !- Name
    FRACTION,                !- Schedule Type Limits Name
    0.0419872379216044,      !- Hour 1
    0.0419872379216044,      !- Hour 2
    0.0239927073837739,      !- Hour 3
    0.0239927073837739,      !- Hour 4
    0.0419872379216044,      !- Hour 5
    0.0659799453053783,      !- Hour 6
    0.149954421148587,       !- Hour 7
    0.251923427529626,       !- Hour 8
    0.2759161349134,         !- Hour 9
    0.287912488605287,       !- Hour 10
    0.251923427529626,       !- Hour 11
    0.299908842297174,       !- Hour 12
    0.341896080218778,       !- Hour 13
    0.2759161349134,         !- Hour 14
    0.341896080218778,       !- Hour 15
    0.263919781221513,       !- Hour 16
    0.5518322698268,         !- Hour 17
    0.899726526891522,       !- Hour 18
    0.701786690975387,       !- Hour 19
    0.359890610756609,       !- Hour 20
    0.209936189608022,       !- Hour 21
    0.149954421148587,       !- Hour 22
    0.0959708295350957,      !- Hour 23
    0.0659799453053783;      !- Hour 24

Schedule:Day:Hourly,
    CookingRangeWkDay05_1,   !- Name
    FRACTION,                !- Schedule Type Limits Name
    0.0421573989668794,      !- Hour 1
    0.0421573989668794,      !- Hour 2
    0.0240899422667882,      !- Hour 3
    0.0240899422667882,      !- Hour 4
    0.0421573989668794,      !- Hour 5
    0.0662473412336676,      !- Hour 6
    0.150562139167426,       !- Hour 7
    0.252944393801276,       !- Hour 8
    0.277034336068064,       !- Hour 9
    0.289079307201459,       !- Hour 10
    0.252944393801276,       !- Hour 11
    0.301124278334853,       !- Hour 12
    0.343281677301732,       !- Hour 13
    0.277034336068064,       !- Hour 14
    0.343281677301732,       !- Hour 15
    0.26498936493467,        !- Hour 16
    0.554068672136129,       !- Hour 17
    0.903372835004558,       !- Hour 18
    0.704630811303555,       !- Hour 19
    0.361349134001823,       !- Hour 20
    0.210786994834397,       !- Hour 21
    0.150562139167426,       !- Hour 22
    0.0963597690671529,      !- Hour 23
    0.0662473412336676;      !- Hour 24

Schedule:Day:Hourly,
    CookingRangeWkDay06_1,   !- Name
    FRACTION,                !- Schedule Type Limits Name
    0.0378608325736858,      !- Hour 1
    0.0378608325736858,      !- Hour 2
    0.0216347614706776,      !- Hour 3
    0.0216347614706776,      !- Hour 4
    0.0378608325736858,      !- Hour 5
    0.0594955940443634,      !- Hour 6
    0.135217259191735,       !- Hour 7
    0.227164995442115,       !- Hour 8
    0.248799756912792,       !- Hour 9
    0.259617137648131,       !- Hour 10
    0.227164995442115,       !- Hour 11
    0.27043451838347,        !- Hour 12
    0.308295350957156,       !- Hour 13
    0.248799756912792,       !- Hour 14
    0.308295350957156,       !- Hour 15
    0.237982376177454,       !- Hour 16
    0.497599513825585,       !- Hour 17
    0.81130355515041,        !- Hour 18
    0.63281677301732,        !- Hour 19
    0.324521422060164,       !- Hour 20
    0.189304162868429,       !- Hour 21
    0.135217259191735,       !- Hour 22
    0.0865390458827104,      !- Hour 23
    0.0594955940443634;      !- Hour 24

Schedule:Day:Hourly,
    CookingRangeWkDay07_1,   !- Name
    FRACTION,                !- Schedule Type Limits Name
    0.0381160741415983,      !- Hour 1
    0.0381160741415983,      !- Hour 2
    0.021780613795199,       !- Hour 3
    0.021780613795199,       !- Hour 4
    0.0381160741415983,      !- Hour 5
    0.0598966879367973,      !- Hour 6
    0.136128836219994,       !- Hour 7
    0.22869644484959,        !- Hour 8
    0.250477058644789,       !- Hour 9
    0.261367365542388,       !- Hour 10
    0.22869644484959,        !- Hour 11
    0.272257672439988,       !- Hour 12
    0.310373746581586,       !- Hour 13
    0.250477058644789,       !- Hour 14
    0.310373746581586,       !- Hour 15
    0.239586751747189,       !- Hour 16
    0.500954117289578,       !- Hour 17
    0.816773017319964,       !- Hour 18
    0.637082953509572,       !- Hour 19
    0.326709206927985,       !- Hour 20
    0.190580370707991,       !- Hour 21
    0.136128836219994,       !- Hour 22
    0.0871224551807961,      !- Hour 23
    0.0598966879367973;      !- Hour 24

Schedule:Day:Hourly,
    CookingRangeWkDay08_1,   !- Name
    FRACTION,                !- Schedule Type Limits Name
    0.0381160741415983,      !- Hour 1
    0.0381160741415983,      !- Hour 2
    0.021780613795199,       !- Hour 3
    0.021780613795199,       !- Hour 4
    0.0381160741415983,      !- Hour 5
    0.0598966879367973,      !- Hour 6
    0.136128836219994,       !- Hour 7
    0.22869644484959,        !- Hour 8
    0.250477058644789,       !- Hour 9
    0.261367365542388,       !- Hour 10
    0.22869644484959,        !- Hour 11
    0.272257672439988,       !- Hour 12
    0.310373746581586,       !- Hour 13
    0.250477058644789,       !- Hour 14
    0.310373746581586,       !- Hour 15
    0.239586751747189,       !- Hour 16
    0.500954117289578,       !- Hour 17
    0.816773017319964,       !- Hour 18
    0.637082953509572,       !- Hour 19
    0.326709206927985,       !- Hour 20
    0.190580370707991,       !- Hour 21
    0.136128836219994,       !- Hour 22
    0.0871224551807961,      !- Hour 23
    0.0598966879367973;      !- Hour 24

Schedule:Day:Hourly,
    CookingRangeWkDay09_1,   !- Name
    FRACTION,                !- Schedule Type Limits Name
    0.0378608325736858,      !- Hour 1
    0.0378608325736858,      !- Hour 2
    0.0216347614706776,      !- Hour 3
    0.0216347614706776,      !- Hour 4
    0.0378608325736858,      !- Hour 5
    0.0594955940443634,      !- Hour 6
    0.135217259191735,       !- Hour 7
    0.227164995442115,       !- Hour 8
    0.248799756912792,       !- Hour 9
    0.259617137648131,       !- Hour 10
    0.227164995442115,       !- Hour 11
    0.27043451838347,        !- Hour 12
    0.308295350957156,       !- Hour 13
    0.248799756912792,       !- Hour 14
    0.308295350957156,       !- Hour 15
    0.237982376177454,       !- Hour 16
    0.497599513825585,       !- Hour 17
    0.81130355515041,        !- Hour 18
    0.63281677301732,        !- Hour 19
    0.324521422060164,       !- Hour 20
    0.189304162868429,       !- Hour 21
    0.135217259191735,       !- Hour 22
    0.0865390458827104,      !- Hour 23
    0.0594955940443634;      !- Hour 24

Schedule:Day:Hourly,
    CookingRangeWkDay10_1,   !- Name
    FRACTION,                !- Schedule Type Limits Name
    0.0461561835308417,      !- Hour 1
    0.0461561835308417,      !- Hour 2
    0.0263749620176238,      !- Hour 3
    0.0263749620176238,      !- Hour 4
    0.0461561835308417,      !- Hour 5
    0.0725311455484655,      !- Hour 6
    0.164843512610149,       !- Hour 7
    0.27693710118505,        !- Hour 8
    0.303312063202674,       !- Hour 9
    0.316499544211486,       !- Hour 10
    0.27693710118505,        !- Hour 11
    0.329687025220298,       !- Hour 12
    0.37584320875114,        !- Hour 13
    0.303312063202674,       !- Hour 14
    0.37584320875114,        !- Hour 15
    0.290124582193862,       !- Hour 16
    0.606624126405348,       !- Hour 17
    0.989061075660893,       !- Hour 18
    0.771467639015497,       !- Hour 19
    0.395624430264357,       !- Hour 20
    0.230780917654208,       !- Hour 21
    0.164843512610149,       !- Hour 22
    0.105499848070495,       !- Hour 23
    0.0725311455484655;      !- Hour 24

Schedule:Day:Hourly,
    CookingRangeWkDay11_1,   !- Name
    FRACTION,                !- Schedule Type Limits Name
    0.0461561835308417,      !- Hour 1
    0.0461561835308417,      !- Hour 2
    0.0263749620176238,      !- Hour 3
    0.0263749620176238,      !- Hour 4
    0.0461561835308417,      !- Hour 5
    0.0725311455484655,      !- Hour 6
    0.164843512610149,       !- Hour 7
    0.27693710118505,        !- Hour 8
    0.303312063202674,       !- Hour 9
    0.316499544211486,       !- Hour 10
    0.27693710118505,        !- Hour 11
    0.329687025220298,       !- Hour 12
    0.37584320875114,        !- Hour 13
    0.303312063202674,       !- Hour 14
    0.37584320875114,        !- Hour 15
    0.290124582193862,       !- Hour 16
    0.606624126405348,       !- Hour 17
    0.989061075660893,       !- Hour 18
    0.771467639015497,       !- Hour 19
    0.395624430264357,       !- Hour 20
    0.230780917654208,       !- Hour 21
    0.164843512610149,       !- Hour 22
    0.105499848070495,       !- Hour 23
    0.0725311455484655;      !- Hour 24

Schedule:Day:Hourly,
    CookingRangeWkDay12_1,   !- Name
    FRACTION,                !- Schedule Type Limits Name
    0.0466666666666667,      !- Hour 1
    0.0466666666666667,      !- Hour 2
    0.0266666666666667,      !- Hour 3
    0.0266666666666667,      !- Hour 4
    0.0466666666666667,      !- Hour 5
    0.0733333333333333,      !- Hour 6
    0.166666666666667,       !- Hour 7
    0.28,                    !- Hour 8
    0.306666666666667,       !- Hour 9
    0.32,                    !- Hour 10
    0.28,                    !- Hour 11
    0.333333333333333,       !- Hour 12
    0.38,                    !- Hour 13
    0.306666666666667,       !- Hour 14
    0.38,                    !- Hour 15
    0.293333333333333,       !- Hour 16
    0.613333333333333,       !- Hour 17
    1,                       !- Hour 18
    0.78,                    !- Hour 19